data_image0
_chemical_formula_structural       C86Cu2H68N2O8
_chemical_formula_sum              "C86 Cu2 H68 N2 O8"
_cell_length_a       9.46735
_cell_length_b       19.5903
_cell_length_c       19.5866
_cell_angle_alpha    89.714
_cell_angle_beta     89.9824
_cell_angle_gamma    89.7666

_space_group_name_H-M_alt    "P 1"
_space_group_IT_number       1

loop_
  _space_group_symop_operation_xyz
  'x, y, z'

loop_
  _atom_site_type_symbol
  _atom_site_label
  _atom_site_symmetry_multiplicity
  _atom_site_fract_x
  _atom_site_fract_y
  _atom_site_fract_z
  _atom_site_occupancy
  C   C1        1.0  0.03956  0.98871  0.87416  1.0000
  C   C2        1.0  0.15628  0.95941  0.69095  1.0000
  C   C3        1.0  0.92667  0.01856  0.69034  1.0000
  C   C4        1.0  0.04110  0.98920  0.79772  1.0000
  C   C5        1.0  0.92748  0.01741  0.76166  1.0000
  C   C6        1.0  0.80417  0.05031  0.65237  1.0000
  C   C7        1.0  0.27815  0.92680  0.65354  1.0000
  C   C8        1.0  0.27640  0.92583  0.35860  1.0000
  C   C9        1.0  0.80341  0.05026  0.35871  1.0000
  C   C10       1.0  0.30221  0.63342  0.99825  1.0000
  C   C11       1.0  0.76581  0.63534  0.01097  1.0000
  C   C12       1.0  0.76617  0.34040  0.00738  1.0000
  C   C13       1.0  0.30312  0.34107  0.00432  1.0000
  C   C14       1.0  0.16369  0.23184  0.00387  1.0000
  C   C15       1.0  0.03654  0.19580  0.00461  1.0000
  C   C16       1.0  0.16484  0.30315  0.00414  1.0000
  C   C17       1.0  0.90539  0.30284  0.00588  1.0000
  C   C18       1.0  0.90844  0.23158  0.00563  1.0000
  C   C19       1.0  0.03468  0.33867  0.00498  1.0000
  C   C20       1.0  0.16233  0.74293  0.00215  1.0000
  C   C21       1.0  0.03509  0.77928  0.00514  1.0000
  C   C22       1.0  0.16388  0.67170  0.00159  1.0000
  C   C23       1.0  0.90456  0.67268  0.00768  1.0000
  C   C24       1.0  0.90723  0.74396  0.00781  1.0000
  C   C25       1.0  0.15516  0.96091  0.76224  1.0000
  C   C26       1.0  0.04166  0.98892  0.65500  1.0000
  C   C27       1.0  0.92443  0.01531  0.24980  1.0000
  C   C28       1.0  0.03801  0.98709  0.21401  1.0000
  C   C29       1.0  0.96408  0.93858  0.46915  1.0000
  C   C30       1.0  0.04087  0.98870  0.43277  1.0000
  C   C31       1.0  0.19618  0.08980  0.57686  1.0000
  C   C32       1.0  0.11798  0.03896  0.54267  1.0000
  C   C33       1.0  0.11789  0.03890  0.46835  1.0000
  C   C34       1.0  0.19639  0.08957  0.43348  1.0000
  C   C35       1.0  0.36081  0.18746  0.57671  1.0000
  C   C36       1.0  0.44113  0.23341  0.54094  1.0000
  C   C37       1.0  0.27669  0.13797  0.54195  1.0000
  C   C38       1.0  0.27684  0.13786  0.46779  1.0000
  C   C39       1.0  0.36118  0.18731  0.43259  1.0000
  C   C40       1.0  0.96484  0.93838  0.54349  1.0000
  C   C41       1.0  0.44127  0.23332  0.46794  1.0000
  C   C42       1.0  0.80478  0.83985  0.46990  1.0000
  C   C43       1.0  0.80604  0.83939  0.54407  1.0000
  C   C44       1.0  0.88681  0.88755  0.57839  1.0000
  C   C45       1.0  0.72013  0.79055  0.43519  1.0000
  C   C46       1.0  0.64110  0.74403  0.47094  1.0000
  C   C47       1.0  0.64252  0.74342  0.54396  1.0000
  C   C48       1.0  0.72296  0.78935  0.57929  1.0000
  C   C49       1.0  0.04018  0.98839  0.35679  1.0000
  C   C50       1.0  0.15244  0.95926  0.24980  1.0000
  C   C51       1.0  0.15419  0.95829  0.32112  1.0000
  C   C52       1.0  0.92494  0.01760  0.32106  1.0000
  C   C53       1.0  0.88457  0.88825  0.43497  1.0000
  C   C54       1.0  0.05445  0.41439  0.25670  1.0000
  C   C55       1.0  0.03388  0.63660  0.00445  1.0000
  C   C56       1.0  0.06020  0.52260  0.31688  1.0000
  C   C57       1.0  0.03739  0.98749  0.13763  1.0000
  C   C58       1.0  0.03655  0.85568  0.00558  1.0000
  C   C59       1.0  0.03708  0.11935  0.00484  1.0000
  C   C60       1.0  0.62019  0.95587  0.94186  1.0000
  C   C61       1.0  0.45617  0.95560  0.94183  1.0000
  C   C62       1.0  0.45474  0.05433  0.01511  1.0000
  C   C63       1.0  0.45628  0.94104  0.06399  1.0000
  C   C64       1.0  0.61827  0.05469  0.01502  1.0000
  C   C65       1.0  0.62056  0.94144  0.06397  1.0000
  C   C66       1.0  0.06003  0.44962  0.31690  1.0000
  C   C67       1.0  0.99802  0.52358  0.69232  1.0000
  C   C68       1.0  0.00441  0.55946  0.75215  1.0000
  C   C69       1.0  0.01270  0.52476  0.81659  1.0000
  C   C70       1.0  0.01448  0.45057  0.81702  1.0000
  C   C71       1.0  0.04162  0.98870  0.57903  1.0000
  C   C72       1.0  0.00786  0.41529  0.75326  1.0000
  C   C73       1.0  0.99985  0.45057  0.69281  1.0000
  C   C74       1.0  0.04927  0.44976  0.19261  1.0000
  C   C75       1.0  0.03390  0.41467  0.00485  1.0000
  C   C76       1.0  0.03919  0.45030  0.06726  1.0000
  C   C77       1.0  0.03926  0.52459  0.06710  1.0000
  C   C78       1.0  0.03344  0.56065  0.00446  1.0000
  C   C79       1.0  0.02238  0.41607  0.87919  1.0000
  C   C80       1.0  0.04954  0.52392  0.19254  1.0000
  C   C81       1.0  0.04422  0.41542  0.13063  1.0000
  C   C82       1.0  0.04472  0.55887  0.13046  1.0000
  C   C83       1.0  0.02796  0.45072  0.94226  1.0000
  C   C84       1.0  0.02713  0.52501  0.94197  1.0000
  C   C85       1.0  0.01946  0.55952  0.87841  1.0000
  C   C86       1.0  0.05490  0.55853  0.25671  1.0000
  Cu  Cu1       1.0  0.90237  0.98844  0.00563  1.0000
  Cu  Cu2       1.0  0.17280  0.98654  0.00610  1.0000
  H   H1        1.0  0.23988  0.88922  0.39746  1.0000
  H   H2        1.0  0.24130  0.88993  0.61539  1.0000
  H   H3        1.0  0.34132  0.96498  0.62576  1.0000
  H   H4        1.0  0.34002  0.96409  0.38563  1.0000
  H   H5        1.0  0.84061  0.08684  0.39703  1.0000
  H   H6        1.0  0.74142  0.01151  0.62565  1.0000
  H   H7        1.0  0.34630  0.89872  0.32310  1.0000
  H   H8        1.0  0.34860  0.89997  0.68926  1.0000
  H   H9        1.0  0.83577  0.03666  0.22115  1.0000
  H   H10       1.0  0.84023  0.08672  0.61324  1.0000
  H   H11       1.0  0.36034  0.18743  0.63247  1.0000
  H   H12       1.0  0.50550  0.27055  0.56804  1.0000
  H   H13       1.0  0.36113  0.18723  0.37683  1.0000
  H   H14       1.0  0.50580  0.27040  0.44045  1.0000
  H   H15       1.0  0.19527  0.09003  0.37774  1.0000
  H   H16       1.0  0.19503  0.09045  0.63258  1.0000
  H   H17       1.0  0.73354  0.07738  0.68757  1.0000
  H   H18       1.0  0.88486  0.88781  0.37925  1.0000
  H   H19       1.0  0.71937  0.79099  0.37943  1.0000
  H   H20       1.0  0.57904  0.70590  0.57142  1.0000
  H   H21       1.0  0.72414  0.78895  0.63504  1.0000
  H   H22       1.0  0.24026  0.93735  0.22115  1.0000
  H   H23       1.0  0.24278  0.93895  0.79118  1.0000
  H   H24       1.0  0.83927  0.03913  0.79016  1.0000
  H   H25       1.0  0.88872  0.88673  0.63411  1.0000
  H   H26       1.0  0.57660  0.70696  0.44380  1.0000
  H   H27       1.0  0.06428  0.42207  0.36541  1.0000
  H   H28       1.0  0.31690  0.60007  0.04310  1.0000
  H   H29       1.0  0.01869  0.61525  0.87796  1.0000
  H   H30       1.0  0.00925  0.35955  0.75393  1.0000
  H   H31       1.0  0.99488  0.42314  0.64455  1.0000
  H   H32       1.0  0.39148  0.66893  0.99599  1.0000
  H   H33       1.0  0.99178  0.55072  0.64363  1.0000
  H   H34       1.0  0.66397  0.96207  0.11148  1.0000
  H   H35       1.0  0.66534  0.89011  0.05730  1.0000
  H   H36       1.0  0.66106  0.08567  0.97309  1.0000
  H   H37       1.0  0.66175  0.07504  0.06268  1.0000
  H   H38       1.0  0.41229  0.96168  0.11146  1.0000
  H   H39       1.0  0.41333  0.88950  0.05740  1.0000
  H   H40       1.0  0.41067  0.08517  0.97330  1.0000
  H   H41       1.0  0.41072  0.07436  0.06288  1.0000
  H   H42       1.0  0.41322  0.90388  0.93664  1.0000
  H   H43       1.0  0.66479  0.90429  0.93688  1.0000
  H   H44       1.0  0.41218  0.98663  0.90017  1.0000
  H   H45       1.0  0.66337  0.98685  0.90007  1.0000
  H   H46       1.0  0.02360  0.36035  0.87943  1.0000
  H   H47       1.0  0.04488  0.61459  0.13059  1.0000
  H   H48       1.0  0.00339  0.61520  0.75168  1.0000
  H   H49       1.0  0.05488  0.61427  0.25667  1.0000
  H   H50       1.0  0.30751  0.60033  0.95308  1.0000
  H   H51       1.0  0.75084  0.60236  0.96626  1.0000
  H   H52       1.0  0.75993  0.60203  0.05629  1.0000
  H   H53       1.0  0.04385  0.35970  0.13077  1.0000
  H   H54       1.0  0.67773  0.30440  0.00971  1.0000
  H   H55       1.0  0.75861  0.37430  0.05187  1.0000
  H   H56       1.0  0.75196  0.37277  0.96179  1.0000
  H   H57       1.0  0.31875  0.36843  0.05269  1.0000
  H   H58       1.0  0.67697  0.67144  0.01306  1.0000
  H   H59       1.0  0.30754  0.37956  0.96333  1.0000
  H   H60       1.0  0.39225  0.30573  0.99764  1.0000
  H   H61       1.0  0.74008  0.01202  0.38634  1.0000
  H   H62       1.0  0.05408  0.35864  0.25657  1.0000
  H   H63       1.0  0.06438  0.54962  0.36540  1.0000
  H   H64       1.0  0.26105  0.77132  0.00017  1.0000
  H   H65       1.0  0.81022  0.20272  0.00650  1.0000
  H   H66       1.0  0.26268  0.20320  0.00322  1.0000
  H   H67       1.0  0.80897  0.77309  0.01004  1.0000
  H   H68       1.0  0.73298  0.07733  0.32317  1.0000
  N   N1        1.0  0.67260  0.98434  0.00690  1.0000
  N   N2        1.0  0.40277  0.98373  0.00694  1.0000
  O   O1        1.0  0.15686  0.08975  0.00226  1.0000
  O   O2        1.0  0.91689  0.09050  0.00784  1.0000
  O   O3        1.0  0.91929  0.99351  0.90282  1.0000
  O   O4        1.0  0.15721  0.88397  0.00900  1.0000
  O   O5        1.0  0.91721  0.88600  0.00256  1.0000
  O   O6        1.0  0.91705  0.98744  0.10865  1.0000
  O   O7        1.0  0.15768  0.98826  0.10842  1.0000
  O   O8        1.0  0.15882  0.98328  0.90389  1.0000
