data_image0
_chemical_formula_structural       C102Cu2H100N2O8
_chemical_formula_sum              "C102 Cu2 H100 N2 O8"
_cell_length_a       9.72914
_cell_length_b       19.5447
_cell_length_c       19.6047
_cell_angle_alpha    89.8417
_cell_angle_beta     89.658
_cell_angle_gamma    89.8964

_space_group_name_H-M_alt    "P 1"
_space_group_IT_number       1

loop_
  _space_group_symop_operation_xyz
  'x, y, z'

loop_
  _atom_site_type_symbol
  _atom_site_label
  _atom_site_symmetry_multiplicity
  _atom_site_fract_x
  _atom_site_fract_y
  _atom_site_fract_z
  _atom_site_occupancy
  C   C1        1.0  0.04412  0.99097  0.89355  1.0000
  C   C2        1.0  0.78994  0.04219  0.68286  1.0000
  C   C3        1.0  0.79030  0.12116  0.68392  1.0000
  C   C4        1.0  0.73617  0.01681  0.61438  1.0000
  C   C5        1.0  0.29650  0.93742  0.68125  1.0000
  C   C6        1.0  0.34725  0.95985  0.61080  1.0000
  C   C7        1.0  0.29490  0.85852  0.68581  1.0000
  C   C8        1.0  0.31350  0.99663  0.36645  1.0000
  C   C9        1.0  0.34240  0.95288  0.42954  1.0000
  C   C10       1.0  0.36181  0.07102  0.37698  1.0000
  C   C11       1.0  0.76881  0.98431  0.36719  1.0000
  C   C12       1.0  0.72085  0.90919  0.37039  1.0000
  C   C13       1.0  0.73848  0.02139  0.43418  1.0000
  C   C14       1.0  0.73553  0.58635  0.05545  1.0000
  C   C15       1.0  0.74490  0.62330  0.93141  1.0000
  C   C16       1.0  0.77426  0.64406  0.00574  1.0000
  C   C17       1.0  0.34427  0.61984  0.10284  1.0000
  C   C18       1.0  0.35305  0.59065  0.97664  1.0000
  C   C19       1.0  0.31368  0.64486  0.02981  1.0000
  C   C20       1.0  0.34354  0.35879  0.93220  1.0000
  C   C21       1.0  0.92125  0.68300  0.56049  1.0000
  C   C22       1.0  0.31239  0.33683  0.00627  1.0000
  C   C23       1.0  0.73374  0.39191  0.97936  1.0000
  C   C24       1.0  0.74243  0.36439  0.10588  1.0000
  C   C25       1.0  0.77288  0.33825  0.03323  1.0000
  C   C26       1.0  0.91881  0.23447  0.02581  1.0000
  C   C27       1.0  0.04175  0.19811  0.02088  1.0000
  C   C28       1.0  0.91604  0.30597  0.02570  1.0000
  C   C29       1.0  0.92818  0.01102  0.78180  1.0000
  C   C30       1.0  0.04454  0.99096  0.81745  1.0000
  C   C31       1.0  0.92541  0.01296  0.71056  1.0000
  C   C32       1.0  0.16224  0.96769  0.70991  1.0000
  C   C33       1.0  0.94015  0.68145  0.48815  1.0000
  C   C34       1.0  0.97222  0.73996  0.45278  1.0000
  C   C35       1.0  0.98310  0.86724  0.59526  1.0000
  C   C36       1.0  0.96712  0.80556  0.56085  1.0000
  C   C37       1.0  0.98649  0.80395  0.48738  1.0000
  C   C38       1.0  0.01409  0.86483  0.45290  1.0000
  C   C39       1.0  0.04282  0.98996  0.59732  1.0000
  C   C40       1.0  0.01627  0.92890  0.56113  1.0000
  C   C41       1.0  0.02439  0.92831  0.48683  1.0000
  C   C42       1.0  0.04119  0.99038  0.45035  1.0000
  C   C43       1.0  0.10178  0.11272  0.59455  1.0000
  C   C44       1.0  0.06823  0.05121  0.56080  1.0000
  C   C45       1.0  0.05801  0.05225  0.48667  1.0000
  C   C46       1.0  0.16899  0.30527  0.01456  1.0000
  C   C47       1.0  0.06735  0.11600  0.45267  1.0000
  C   C48       1.0  0.16396  0.29707  0.55915  1.0000
  C   C49       1.0  0.11676  0.17463  0.56005  1.0000
  C   C50       1.0  0.09585  0.17664  0.48683  1.0000
  C   C51       1.0  0.11045  0.24074  0.45202  1.0000
  C   C52       1.0  0.14409  0.29897  0.48696  1.0000
  C   C53       1.0  0.04119  0.99093  0.37394  1.0000
  C   C54       1.0  0.16453  0.99389  0.26568  1.0000
  C   C55       1.0  0.16783  0.99334  0.33698  1.0000
  C   C56       1.0  0.91485  0.98958  0.33762  1.0000
  C   C57       1.0  0.04149  0.99282  0.22986  1.0000
  C   C58       1.0  0.91852  0.99098  0.26633  1.0000
  C   C59       1.0  0.04361  0.99010  0.67366  1.0000
  C   C60       1.0  0.16061  0.97052  0.78117  1.0000
  C   C61       1.0  0.15054  0.23680  0.59448  1.0000
  C   C62       1.0  0.16523  0.23378  0.01544  1.0000
  C   C63       1.0  0.35093  0.39360  0.05655  1.0000
  C   C64       1.0  0.91919  0.74756  0.01613  1.0000
  C   C65       1.0  0.04593  0.45406  0.08148  1.0000
  C   C66       1.0  0.04260  0.52834  0.08092  1.0000
  C   C67       1.0  0.04282  0.34166  0.01981  1.0000
  C   C68       1.0  0.05090  0.41985  0.27115  1.0000
  C   C69       1.0  0.04459  0.45566  0.33110  1.0000
  C   C70       1.0  0.04732  0.45463  0.20680  1.0000
  C   C71       1.0  0.03687  0.52879  0.20630  1.0000
  C   C72       1.0  0.03065  0.56404  0.27018  1.0000
  C   C73       1.0  0.05145  0.41980  0.14509  1.0000
  C   C74       1.0  0.03479  0.52869  0.33058  1.0000
  C   C75       1.0  0.61997  0.06046  0.02626  1.0000
  C   C76       1.0  0.46007  0.95022  0.08274  1.0000
  C   C77       1.0  0.46044  0.06020  0.02654  1.0000
  C   C78       1.0  0.46259  0.95673  0.96008  1.0000
  C   C79       1.0  0.62231  0.95609  0.96090  1.0000
  C   C80       1.0  0.04110  0.12162  0.02172  1.0000
  C   C81       1.0  0.04137  0.86030  0.02313  1.0000
  C   C82       1.0  0.04078  0.99256  0.15359  1.0000
  C   C83       1.0  0.61984  0.95125  0.08362  1.0000
  C   C84       1.0  0.04505  0.56399  0.01811  1.0000
  C   C85       1.0  0.03531  0.56314  0.14408  1.0000
  C   C86       1.0  0.93439  0.74314  0.59563  1.0000
  C   C87       1.0  0.03237  0.45333  0.70667  1.0000
  C   C88       1.0  0.02819  0.41803  0.76715  1.0000
  C   C89       1.0  0.03438  0.41878  0.89325  1.0000
  C   C90       1.0  0.03655  0.45313  0.83101  1.0000
  C   C91       1.0  0.04872  0.52721  0.83040  1.0000
  C   C92       1.0  0.05297  0.56200  0.89215  1.0000
  C   C93       1.0  0.04371  0.41790  0.01920  1.0000
  C   C94       1.0  0.04200  0.45351  0.95638  1.0000
  C   C95       1.0  0.04675  0.52780  0.95580  1.0000
  C   C96       1.0  0.04612  0.52619  0.70600  1.0000
  C   C97       1.0  0.04413  0.64026  0.01810  1.0000
  C   C98       1.0  0.16568  0.74804  0.02415  1.0000
  C   C99       1.0  0.05392  0.56186  0.76595  1.0000
  C   C100      1.0  0.17004  0.67658  0.02319  1.0000
  C   C101      1.0  0.91705  0.67606  0.01409  1.0000
  C   C102      1.0  0.04185  0.78383  0.02112  1.0000
  Cu  Cu1       1.0  0.17685  0.99069  0.02321  1.0000
  Cu  Cu2       1.0  0.90568  0.99135  0.02379  1.0000
  H   H1        1.0  0.78362  0.99484  0.47779  1.0000
  H   H2        1.0  0.26541  0.84079  0.73708  1.0000
  H   H3        1.0  0.39760  0.83797  0.67392  1.0000
  H   H4        1.0  0.37860  0.97573  0.32517  1.0000
  H   H5        1.0  0.60898  0.90666  0.37789  1.0000
  H   H6        1.0  0.74596  0.88192  0.32295  1.0000
  H   H7        1.0  0.76916  0.88157  0.41280  1.0000
  H   H8        1.0  0.70457  0.00940  0.32818  1.0000
  H   H9        1.0  0.29517  0.97460  0.47532  1.0000
  H   H10       1.0  0.45345  0.95056  0.43881  1.0000
  H   H11       1.0  0.47395  0.07256  0.38301  1.0000
  H   H12       1.0  0.33527  0.10349  0.33310  1.0000
  H   H13       1.0  0.31533  0.09380  0.42272  1.0000
  H   H14       1.0  0.30517  0.90019  0.42387  1.0000
  H   H15       1.0  0.25167  0.95515  0.80960  1.0000
  H   H16       1.0  0.34589  0.01567  0.60419  1.0000
  H   H17       1.0  0.82250  0.99025  0.23794  1.0000
  H   H18       1.0  0.26070  0.99507  0.23687  1.0000
  H   H19       1.0  0.91985  0.74448  0.65089  1.0000
  H   H20       1.0  0.89518  0.63590  0.58760  1.0000
  H   H21       1.0  0.92766  0.63317  0.46108  1.0000
  H   H22       1.0  0.98603  0.73890  0.39747  1.0000
  H   H23       1.0  0.97078  0.86812  0.65060  1.0000
  H   H24       1.0  0.02610  0.86387  0.39755  1.0000
  H   H25       1.0  0.11526  0.11158  0.64974  1.0000
  H   H26       1.0  0.05453  0.11733  0.39744  1.0000
  H   H27       1.0  0.16581  0.23516  0.64960  1.0000
  H   H28       1.0  0.22233  0.83666  0.64913  1.0000
  H   H29       1.0  0.19075  0.34401  0.58597  1.0000
  H   H30       1.0  0.15685  0.34731  0.45969  1.0000
  H   H31       1.0  0.71321  0.02615  0.72137  1.0000
  H   H32       1.0  0.86033  0.14201  0.64496  1.0000
  H   H33       1.0  0.82218  0.14099  0.73379  1.0000
  H   H34       1.0  0.68659  0.14079  0.67320  1.0000
  H   H35       1.0  0.79495  0.03790  0.57154  1.0000
  H   H36       1.0  0.62931  0.03402  0.60820  1.0000
  H   H37       1.0  0.73750  0.96076  0.61042  1.0000
  H   H38       1.0  0.37501  0.95473  0.71775  1.0000
  H   H39       1.0  0.83743  0.02656  0.81082  1.0000
  H   H40       1.0  0.45374  0.94230  0.60359  1.0000
  H   H41       1.0  0.09566  0.24211  0.39685  1.0000
  H   H42       1.0  0.28644  0.93703  0.57004  1.0000
  H   H43       1.0  0.32634  0.37959  0.10952  1.0000
  H   H44       1.0  0.62521  0.57559  0.05145  1.0000
  H   H45       1.0  0.26089  0.77709  0.02780  1.0000
  H   H46       1.0  0.01813  0.36238  0.76763  1.0000
  H   H47       1.0  0.02519  0.42583  0.65845  1.0000
  H   H48       1.0  0.75690  0.60005  0.10863  1.0000
  H   H49       1.0  0.06397  0.61751  0.76559  1.0000
  H   H50       1.0  0.02742  0.36309  0.89351  1.0000
  H   H51       1.0  0.05971  0.61770  0.89162  1.0000
  H   H52       1.0  0.05696  0.36406  0.14562  1.0000
  H   H53       1.0  0.02962  0.61887  0.14387  1.0000
  H   H54       1.0  0.05813  0.36408  0.27140  1.0000
  H   H55       1.0  0.04637  0.42857  0.37982  1.0000
  H   H56       1.0  0.02337  0.61981  0.26969  1.0000
  H   H57       1.0  0.03114  0.55618  0.37891  1.0000
  H   H58       1.0  0.65999  0.97618  0.12948  1.0000
  H   H59       1.0  0.66396  0.89950  0.08174  1.0000
  H   H60       1.0  0.66228  0.08809  0.98205  1.0000
  H   H61       1.0  0.66188  0.08471  0.07212  1.0000
  H   H62       1.0  0.41536  0.97353  0.12869  1.0000
  H   H63       1.0  0.41910  0.89801  0.07917  1.0000
  H   H64       1.0  0.41804  0.08833  0.98288  1.0000
  H   H65       1.0  0.41754  0.08363  0.07289  1.0000
  H   H66       1.0  0.41963  0.90484  0.95750  1.0000
  H   H67       1.0  0.66419  0.90385  0.95999  1.0000
  H   H68       1.0  0.42185  0.98563  0.91655  1.0000
  H   H69       1.0  0.66656  0.98350  0.91706  1.0000
  H   H70       1.0  0.82307  0.77622  0.01365  1.0000
  H   H71       1.0  0.26067  0.20464  0.01185  1.0000
  H   H72       1.0  0.05061  0.55330  0.65731  1.0000
  H   H73       1.0  0.70248  0.29484  0.02527  1.0000
  H   H74       1.0  0.78961  0.53849  0.04431  1.0000
  H   H75       1.0  0.63408  0.61588  0.92412  1.0000
  H   H76       1.0  0.77907  0.66301  0.89533  1.0000
  H   H77       1.0  0.79674  0.57538  0.91763  1.0000
  H   H78       1.0  0.70324  0.68663  0.01722  1.0000
  H   H79       1.0  0.45539  0.61255  0.10939  1.0000
  H   H80       1.0  0.30945  0.65717  0.14107  1.0000
  H   H81       1.0  0.82301  0.20585  0.03000  1.0000
  H   H82       1.0  0.33028  0.60779  0.92450  1.0000
  H   H83       1.0  0.46370  0.58020  0.97947  1.0000
  H   H84       1.0  0.30036  0.54190  0.98507  1.0000
  H   H85       1.0  0.38343  0.68841  0.02057  1.0000
  H   H86       1.0  0.29396  0.57092  0.11416  1.0000
  H   H87       1.0  0.31046  0.31965  0.89567  1.0000
  H   H88       1.0  0.79309  0.41335  0.11603  1.0000
  H   H89       1.0  0.77670  0.32753  0.14468  1.0000
  H   H90       1.0  0.45450  0.36651  0.92505  1.0000
  H   H91       1.0  0.63136  0.37204  0.11287  1.0000
  H   H92       1.0  0.78794  0.44040  0.98617  1.0000
  H   H93       1.0  0.62346  0.40320  0.98319  1.0000
  H   H94       1.0  0.77629  0.07430  0.43376  1.0000
  H   H95       1.0  0.38254  0.29381  0.01720  1.0000
  H   H96       1.0  0.29947  0.44215  0.04531  1.0000
  H   H97       1.0  0.46184  0.40322  0.05334  1.0000
  H   H98       1.0  0.62707  0.02317  0.44327  1.0000
  H   H99       1.0  0.29176  0.40686  0.91892  1.0000
  H   H100      1.0  0.75494  0.37383  0.92734  1.0000
  N   N1        1.0  0.67323  0.98944  0.02368  1.0000
  N   N2        1.0  0.40864  0.98908  0.02307  1.0000
  O   O1        1.0  0.15817  0.09232  0.02059  1.0000
  O   O2        1.0  0.92358  0.09300  0.02349  1.0000
  O   O3        1.0  0.92654  0.99289  0.92245  1.0000
  O   O4        1.0  0.15876  0.88912  0.02469  1.0000
  O   O5        1.0  0.92413  0.88948  0.02296  1.0000
  O   O6        1.0  0.92336  0.99164  0.12520  1.0000
  O   O7        1.0  0.15797  0.99289  0.12413  1.0000
  O   O8        1.0  0.16136  0.98887  0.92213  1.0000
