data_image0
_chemical_formula_structural       C78Cu2H52N2O8
_chemical_formula_sum              "C78 Cu2 H52 N2 O8"
_cell_length_a       9.56806
_cell_length_b       19.595
_cell_length_c       19.6088
_cell_angle_alpha    89.901
_cell_angle_beta     90.2349
_cell_angle_gamma    89.728

_space_group_name_H-M_alt    "P 1"
_space_group_IT_number       1

loop_
  _space_group_symop_operation_xyz
  'x, y, z'

loop_
  _atom_site_type_symbol
  _atom_site_label
  _atom_site_symmetry_multiplicity
  _atom_site_fract_x
  _atom_site_fract_y
  _atom_site_fract_z
  _atom_site_occupancy
  C   C1        1.0  0.04161  0.00777  0.87027  1.0000
  C   C2        1.0  0.94874  0.75927  0.42941  1.0000
  C   C3        1.0  0.04488  0.00663  0.65051  1.0000
  C   C4        1.0  0.91811  0.01021  0.68624  1.0000
  C   C5        1.0  0.91829  0.32252  0.00155  1.0000
  C   C6        1.0  0.91698  0.25146  0.00149  1.0000
  C   C7        1.0  0.04282  0.21456  0.00116  1.0000
  C   C8        1.0  0.16998  0.24980  0.00085  1.0000
  C   C9        1.0  0.17103  0.32084  0.00106  1.0000
  C   C10       1.0  0.04532  0.35815  0.00139  1.0000
  C   C11       1.0  0.92492  0.70005  0.46473  1.0000
  C   C12       1.0  0.04776  0.58011  0.25297  1.0000
  C   C13       1.0  0.04539  0.47176  0.31372  1.0000
  C   C14       1.0  0.04496  0.43600  0.25371  1.0000
  C   C15       1.0  0.04743  0.57921  0.12691  1.0000
  C   C16       1.0  0.04701  0.54485  0.18907  1.0000
  C   C17       1.0  0.04583  0.47071  0.18939  1.0000
  C   C18       1.0  0.04567  0.43576  0.12760  1.0000
  C   C19       1.0  0.04648  0.57964  0.74899  1.0000
  C   C20       1.0  0.04427  0.54428  0.68875  1.0000
  C   C21       1.0  0.04222  0.47131  0.68875  1.0000
  C   C22       1.0  0.04701  0.54474  0.31336  1.0000
  C   C23       1.0  0.92565  0.69972  0.53768  1.0000
  C   C24       1.0  0.95029  0.75862  0.57333  1.0000
  C   C25       1.0  0.99889  0.88300  0.42998  1.0000
  C   C26       1.0  0.06797  0.06858  0.46478  1.0000
  C   C27       1.0  0.04565  0.00702  0.42894  1.0000
  C   C28       1.0  0.91789  0.01019  0.24586  1.0000
  C   C29       1.0  0.04400  0.00782  0.20982  1.0000
  C   C30       1.0  0.17073  0.00549  0.24584  1.0000
  C   C31       1.0  0.17124  0.00517  0.31681  1.0000
  C   C32       1.0  0.04526  0.00738  0.35318  1.0000
  C   C33       1.0  0.91860  0.01003  0.31682  1.0000
  C   C34       1.0  0.02270  0.94504  0.53891  1.0000
  C   C35       1.0  0.02250  0.94529  0.46455  1.0000
  C   C36       1.0  0.08842  0.13077  0.57377  1.0000
  C   C37       1.0  0.11038  0.19196  0.53934  1.0000
  C   C38       1.0  0.11062  0.19220  0.46528  1.0000
  C   C39       1.0  0.08906  0.13126  0.43045  1.0000
  C   C40       1.0  0.13352  0.25500  0.57435  1.0000
  C   C41       1.0  0.15667  0.31425  0.53896  1.0000
  C   C42       1.0  0.15682  0.31448  0.46605  1.0000
  C   C43       1.0  0.13388  0.25542  0.43043  1.0000
  C   C44       1.0  0.99962  0.88252  0.57328  1.0000
  C   C45       1.0  0.97500  0.82177  0.53858  1.0000
  C   C46       1.0  0.97432  0.82207  0.46450  1.0000
  C   C47       1.0  0.04358  0.43560  0.74894  1.0000
  C   C48       1.0  0.04755  0.57899  0.87509  1.0000
  C   C49       1.0  0.04673  0.54449  0.81309  1.0000
  C   C50       1.0  0.04582  0.47037  0.81313  1.0000
  C   C51       1.0  0.04302  0.00742  0.13339  1.0000
  C   C52       1.0  0.04428  0.87513  0.00136  1.0000
  C   C53       1.0  0.04141  0.13804  0.00144  1.0000
  C   C54       1.0  0.62243  0.97885  0.93634  1.0000
  C   C55       1.0  0.46022  0.97870  0.93645  1.0000
  C   C56       1.0  0.46020  0.07369  0.01448  1.0000
  C   C57       1.0  0.06770  0.06835  0.53909  1.0000
  C   C58       1.0  0.62218  0.07366  0.01466  1.0000
  C   C59       1.0  0.62413  0.95819  0.05734  1.0000
  C   C60       1.0  0.17060  0.00350  0.68755  1.0000
  C   C61       1.0  0.16969  0.00393  0.75854  1.0000
  C   C62       1.0  0.04290  0.00755  0.79387  1.0000
  C   C63       1.0  0.91702  0.01066  0.75721  1.0000
  C   C64       1.0  0.46144  0.95838  0.05752  1.0000
  C   C65       1.0  0.04666  0.65565  0.00090  1.0000
  C   C66       1.0  0.04617  0.43553  0.87512  1.0000
  C   C67       1.0  0.04695  0.54436  0.06370  1.0000
  C   C68       1.0  0.04634  0.46996  0.06393  1.0000
  C   C69       1.0  0.04640  0.43413  0.00137  1.0000
  C   C70       1.0  0.04683  0.46986  0.93857  1.0000
  C   C71       1.0  0.17283  0.69186  0.00133  1.0000
  C   C72       1.0  0.04725  0.54423  0.93841  1.0000
  C   C73       1.0  0.04715  0.57986  0.00096  1.0000
  C   C74       1.0  0.04560  0.00656  0.57471  1.0000
  C   C75       1.0  0.04525  0.79875  0.00115  1.0000
  C   C76       1.0  0.91974  0.69183  0.00057  1.0000
  C   C77       1.0  0.91895  0.76282  0.00069  1.0000
  C   C78       1.0  0.17219  0.76286  0.00143  1.0000
  Cu  Cu1       1.0  0.17694  0.00643  0.00201  1.0000
  Cu  Cu2       1.0  0.90634  0.00678  0.00159  1.0000
  H   H1        1.0  0.17613  0.36170  0.56638  1.0000
  H   H2        1.0  0.82000  0.01218  0.21736  1.0000
  H   H3        1.0  0.26821  0.00370  0.21737  1.0000
  H   H4        1.0  0.26982  0.00315  0.34493  1.0000
  H   H5        1.0  0.26929  0.00066  0.66000  1.0000
  H   H6        1.0  0.26689  0.00127  0.78755  1.0000
  H   H7        1.0  0.81904  0.01344  0.78518  1.0000
  H   H8        1.0  0.82021  0.01273  0.65758  1.0000
  H   H9        1.0  0.13415  0.25546  0.37473  1.0000
  H   H10       1.0  0.13364  0.25478  0.63005  1.0000
  H   H11       1.0  0.08850  0.13192  0.37483  1.0000
  H   H12       1.0  0.90534  0.65219  0.56488  1.0000
  H   H13       1.0  0.94797  0.75964  0.37372  1.0000
  H   H14       1.0  0.00069  0.88191  0.62891  1.0000
  H   H15       1.0  0.99938  0.88271  0.37435  1.0000
  H   H16       1.0  0.08751  0.13103  0.62939  1.0000
  H   H17       1.0  0.17632  0.36210  0.43887  1.0000
  H   H18       1.0  0.95055  0.75846  0.62902  1.0000
  H   H19       1.0  0.04192  0.37988  0.74897  1.0000
  H   H20       1.0  0.04842  0.57220  0.36173  1.0000
  H   H21       1.0  0.66447  0.01213  0.89644  1.0000
  H   H22       1.0  0.41648  0.01186  0.89655  1.0000
  H   H23       1.0  0.66627  0.92762  0.92816  1.0000
  H   H24       1.0  0.41744  0.92740  0.92846  1.0000
  H   H25       1.0  0.41707  0.09168  0.06309  1.0000
  H   H26       1.0  0.41681  0.10651  0.97417  1.0000
  H   H27       1.0  0.41823  0.90734  0.04861  1.0000
  H   H28       1.0  0.41884  0.97690  0.10600  1.0000
  H   H29       1.0  0.66546  0.09136  0.06343  1.0000
  H   H30       1.0  0.27139  0.66362  0.00161  1.0000
  H   H31       1.0  0.66757  0.90710  0.04802  1.0000
  H   H32       1.0  0.66787  0.97631  0.10582  1.0000
  H   H33       1.0  0.04451  0.57172  0.64028  1.0000
  H   H34       1.0  0.04805  0.63536  0.74915  1.0000
  H   H35       1.0  0.90412  0.65274  0.43730  1.0000
  H   H36       1.0  0.66468  0.10671  0.97463  1.0000
  H   H37       1.0  0.04541  0.37987  0.87465  1.0000
  H   H38       1.0  0.03889  0.44408  0.64028  1.0000
  H   H39       1.0  0.26950  0.79149  0.00178  1.0000
  H   H40       1.0  0.04809  0.63465  0.87482  1.0000
  H   H41       1.0  0.82108  0.79145  0.00044  1.0000
  H   H42       1.0  0.82177  0.66356  0.00029  1.0000
  H   H43       1.0  0.82033  0.35125  0.00183  1.0000
  H   H44       1.0  0.81875  0.22356  0.00184  1.0000
  H   H45       1.0  0.82051  0.01192  0.34496  1.0000
  H   H46       1.0  0.26995  0.34833  0.00101  1.0000
  H   H47       1.0  0.04352  0.38027  0.25394  1.0000
  H   H48       1.0  0.04375  0.44461  0.36235  1.0000
  H   H49       1.0  0.04927  0.63584  0.25259  1.0000
  H   H50       1.0  0.26723  0.22067  0.00074  1.0000
  H   H51       1.0  0.04497  0.38009  0.12836  1.0000
  H   H52       1.0  0.04814  0.63487  0.12694  1.0000
  N   N1        1.0  0.67580  0.00373  0.00272  1.0000
  N   N2        1.0  0.40784  0.00373  0.00282  1.0000
  O   O1        1.0  0.92231  0.00932  0.89875  1.0000
  O   O2        1.0  0.16311  0.90426  0.00262  1.0000
  O   O3        1.0  0.92492  0.90420  0.00039  1.0000
  O   O4        1.0  0.92386  0.00588  0.10425  1.0000
  O   O5        1.0  0.16179  0.00837  0.10423  1.0000
  O   O6        1.0  0.16017  0.00611  0.89994  1.0000
  O   O7        1.0  0.16011  0.10840  0.00014  1.0000
  O   O8        1.0  0.92229  0.10942  0.00316  1.0000
