data_image0
_chemical_formula_structural       C76Cu2H44N2O8
_chemical_formula_sum              "C76 Cu2 H44 N2 O8"
_cell_length_a       9.60645
_cell_length_b       19.5819
_cell_length_c       19.5758
_cell_angle_alpha    89.9432
_cell_angle_beta     89.9223
_cell_angle_gamma    89.8553

_space_group_name_H-M_alt    "P 1"
_space_group_IT_number       1

loop_
  _space_group_symop_operation_xyz
  'x, y, z'

loop_
  _atom_site_type_symbol
  _atom_site_label
  _atom_site_symmetry_multiplicity
  _atom_site_fract_x
  _atom_site_fract_y
  _atom_site_fract_z
  _atom_site_occupancy
  C   C1        1.0  0.05097  0.00646  0.87053  1.0000
  C   C2        1.0  0.93773  0.69994  0.53849  1.0000
  C   C3        1.0  0.93724  0.70000  0.46544  1.0000
  C   C4        1.0  0.95886  0.75936  0.42980  1.0000
  C   C5        1.0  0.05188  0.00780  0.65048  1.0000
  C   C6        1.0  0.92592  0.01061  0.68685  1.0000
  C   C7        1.0  0.92546  0.01019  0.75795  1.0000
  C   C8        1.0  0.05133  0.00689  0.79399  1.0000
  C   C9        1.0  0.17744  0.00447  0.75801  1.0000
  C   C10       1.0  0.17756  0.00488  0.68689  1.0000
  C   C11       1.0  0.92531  0.32219  0.00084  1.0000
  C   C12       1.0  0.92508  0.25111  0.00142  1.0000
  C   C13       1.0  0.05118  0.21498  0.00298  1.0000
  C   C14       1.0  0.17725  0.25085  0.00383  1.0000
  C   C15       1.0  0.17716  0.32193  0.00327  1.0000
  C   C16       1.0  0.05119  0.35840  0.00182  1.0000
  C   C17       1.0  0.05186  0.57888  0.25460  1.0000
  C   C18       1.0  0.05091  0.54293  0.31476  1.0000
  C   C19       1.0  0.04869  0.46993  0.31452  1.0000
  C   C20       1.0  0.04859  0.43473  0.25405  1.0000
  C   C21       1.0  0.95993  0.75921  0.57405  1.0000
  C   C22       1.0  0.14043  0.25641  0.57270  1.0000
  C   C23       1.0  0.00482  0.88354  0.43006  1.0000
  C   C24       1.0  0.98289  0.82242  0.53901  1.0000
  C   C25       1.0  0.09772  0.13168  0.42929  1.0000
  C   C26       1.0  0.11912  0.19296  0.46370  1.0000
  C   C27       1.0  0.11832  0.19315  0.53787  1.0000
  C   C28       1.0  0.09635  0.13212  0.57283  1.0000
  C   C29       1.0  0.02781  0.94600  0.46457  1.0000
  C   C30       1.0  0.02788  0.94605  0.53900  1.0000
  C   C31       1.0  0.05184  0.00775  0.57455  1.0000
  C   C32       1.0  0.07508  0.06940  0.53858  1.0000
  C   C33       1.0  0.07570  0.06926  0.46414  1.0000
  C   C34       1.0  0.05238  0.00750  0.42870  1.0000
  C   C35       1.0  0.92631  0.01025  0.24568  1.0000
  C   C36       1.0  0.05219  0.00777  0.20952  1.0000
  C   C37       1.0  0.17843  0.00508  0.24528  1.0000
  C   C38       1.0  0.17848  0.00494  0.31638  1.0000
  C   C39       1.0  0.05273  0.00741  0.35287  1.0000
  C   C40       1.0  0.92673  0.01010  0.31674  1.0000
  C   C41       1.0  0.16310  0.31547  0.46390  1.0000
  C   C42       1.0  0.14192  0.25606  0.42848  1.0000
  C   C43       1.0  0.00552  0.88352  0.57359  1.0000
  C   C44       1.0  0.98239  0.82245  0.46482  1.0000
  C   C45       1.0  0.05069  0.54425  0.19021  1.0000
  C   C46       1.0  0.05097  0.57898  0.12808  1.0000
  C   C47       1.0  0.04975  0.43542  0.12788  1.0000
  C   C48       1.0  0.05157  0.00744  0.13303  1.0000
  C   C49       1.0  0.05108  0.87590  0.00071  1.0000
  C   C50       1.0  0.05124  0.13845  0.00316  1.0000
  C   C51       1.0  0.62313  0.96577  0.96003  1.0000
  C   C52       1.0  0.62249  0.04886  0.04302  1.0000
  C   C53       1.0  0.47775  0.04894  0.04293  1.0000
  C   C54       1.0  0.47839  0.96591  0.95988  1.0000
  C   C55       1.0  0.04977  0.47008  0.19000  1.0000
  C   C56       1.0  0.05133  0.65609  0.00178  1.0000
  C   C57       1.0  0.92532  0.69255  0.00121  1.0000
  C   C58       1.0  0.92494  0.76361  0.00075  1.0000
  C   C59       1.0  0.05103  0.79946  0.00068  1.0000
  C   C60       1.0  0.17721  0.76335  0.00132  1.0000
  C   C61       1.0  0.05113  0.58019  0.00188  1.0000
  C   C62       1.0  0.05115  0.54463  0.93909  1.0000
  C   C63       1.0  0.17722  0.69228  0.00192  1.0000
  C   C64       1.0  0.16229  0.31566  0.53695  1.0000
  C   C65       1.0  0.05203  0.54531  0.68886  1.0000
  C   C66       1.0  0.05060  0.47021  0.93889  1.0000
  C   C67       1.0  0.04903  0.43638  0.74868  1.0000
  C   C68       1.0  0.05078  0.43433  0.00163  1.0000
  C   C69       1.0  0.05044  0.46995  0.06441  1.0000
  C   C70       1.0  0.05075  0.54437  0.06460  1.0000
  C   C71       1.0  0.05017  0.43592  0.87521  1.0000
  C   C72       1.0  0.05270  0.58043  0.74939  1.0000
  C   C73       1.0  0.05210  0.57943  0.87567  1.0000
  C   C74       1.0  0.04965  0.47232  0.68855  1.0000
  C   C75       1.0  0.05037  0.47087  0.81317  1.0000
  C   C76       1.0  0.05175  0.54502  0.81344  1.0000
  Cu  Cu1       1.0  0.91639  0.00748  0.00191  1.0000
  Cu  Cu2       1.0  0.18502  0.00669  0.00173  1.0000
  H   H1        1.0  0.82906  0.01211  0.21718  1.0000
  H   H2        1.0  0.27643  0.00278  0.34446  1.0000
  H   H3        1.0  0.18065  0.36341  0.56414  1.0000
  H   H4        1.0  0.27557  0.00290  0.65873  1.0000
  H   H5        1.0  0.27543  0.00280  0.21649  1.0000
  H   H6        1.0  0.27452  0.00237  0.78662  1.0000
  H   H7        1.0  0.18210  0.36308  0.43646  1.0000
  H   H8        1.0  0.82815  0.01315  0.65864  1.0000
  H   H9        1.0  0.95982  0.75926  0.62984  1.0000
  H   H10       1.0  0.95798  0.75959  0.37401  1.0000
  H   H11       1.0  0.00635  0.88307  0.62932  1.0000
  H   H12       1.0  0.00529  0.88313  0.37435  1.0000
  H   H13       1.0  0.09511  0.13281  0.62855  1.0000
  H   H14       1.0  0.09742  0.13190  0.37357  1.0000
  H   H15       1.0  0.14021  0.25645  0.62849  1.0000
  H   H16       1.0  0.14284  0.25580  0.37270  1.0000
  H   H17       1.0  0.82822  0.01259  0.78655  1.0000
  H   H18       1.0  0.91887  0.65228  0.56587  1.0000
  H   H19       1.0  0.05364  0.63465  0.25481  1.0000
  H   H20       1.0  0.05252  0.57006  0.36342  1.0000
  H   H21       1.0  0.41758  0.93275  0.92662  1.0000
  H   H22       1.0  0.68447  0.93251  0.92687  1.0000
  H   H23       1.0  0.68325  0.08209  0.07624  1.0000
  H   H24       1.0  0.41638  0.08220  0.07608  1.0000
  H   H25       1.0  0.05375  0.57296  0.64045  1.0000
  H   H26       1.0  0.27524  0.66402  0.00246  1.0000
  H   H27       1.0  0.04718  0.38062  0.74840  1.0000
  H   H28       1.0  0.05294  0.63513  0.87546  1.0000
  H   H29       1.0  0.04954  0.38021  0.87468  1.0000
  H   H30       1.0  0.05150  0.63468  0.12833  1.0000
  H   H31       1.0  0.04908  0.37972  0.12833  1.0000
  H   H32       1.0  0.05441  0.63619  0.74983  1.0000
  H   H33       1.0  0.04656  0.44237  0.36298  1.0000
  H   H34       1.0  0.04769  0.44524  0.63987  1.0000
  H   H35       1.0  0.91804  0.65239  0.43815  1.0000
  H   H36       1.0  0.27437  0.79191  0.00165  1.0000
  H   H37       1.0  0.82765  0.79231  0.00067  1.0000
  H   H38       1.0  0.82743  0.66441  0.00120  1.0000
  H   H39       1.0  0.82896  0.01204  0.34511  1.0000
  H   H40       1.0  0.82786  0.22262  0.00049  1.0000
  H   H41       1.0  0.27450  0.22213  0.00457  1.0000
  H   H42       1.0  0.27510  0.35001  0.00387  1.0000
  H   H43       1.0  0.04701  0.37897  0.25366  1.0000
  H   H44       1.0  0.82737  0.35050  0.99962  1.0000
  N   N1        1.0  0.40658  0.00744  0.00139  1.0000
  N   N2        1.0  0.69440  0.00724  0.00161  1.0000
  O   O1        1.0  0.16982  0.10911  0.00371  1.0000
  O   O2        1.0  0.93248  0.10963  0.00242  1.0000
  O   O3        1.0  0.93227  0.00671  0.89959  1.0000
  O   O4        1.0  0.16995  0.90460  0.00011  1.0000
  O   O5        1.0  0.93257  0.90529  0.00161  1.0000
  O   O6        1.0  0.93280  0.00878  0.10415  1.0000
  O   O7        1.0  0.17009  0.00560  0.10373  1.0000
  O   O8        1.0  0.16953  0.00617  0.89971  1.0000
