data_image0
_chemical_formula_structural       C82Cu2H48N2O8
_chemical_formula_sum              "C82 Cu2 H48 N2 O8"
_cell_length_a       13.6404
_cell_length_b       19.4183
_cell_length_c       19.4213
_cell_angle_alpha    90.0851
_cell_angle_beta     89.9937
_cell_angle_gamma    89.9682

_space_group_name_H-M_alt    "P 1"
_space_group_IT_number       1

loop_
  _space_group_symop_operation_xyz
  'x, y, z'

loop_
  _atom_site_type_symbol
  _atom_site_label
  _atom_site_symmetry_multiplicity
  _atom_site_fract_x
  _atom_site_fract_y
  _atom_site_fract_z
  _atom_site_occupancy
  C   C1        1.0  0.02674  0.00735  0.87188  1.0000
  C   C2        1.0  0.02581  0.00935  0.65164  1.0000
  C   C3        1.0  0.93726  0.00681  0.68814  1.0000
  C   C4        1.0  0.93755  0.00614  0.75961  1.0000
  C   C5        1.0  0.02660  0.00845  0.79528  1.0000
  C   C6        1.0  0.11523  0.01172  0.75918  1.0000
  C   C7        1.0  0.11471  0.01191  0.68772  1.0000
  C   C8        1.0  0.93684  0.32175  0.99618  1.0000
  C   C9        1.0  0.93692  0.25026  0.99662  1.0000
  C   C10       1.0  0.02572  0.21449  0.00132  1.0000
  C   C11       1.0  0.11441  0.25044  0.00491  1.0000
  C   C12       1.0  0.11411  0.32192  0.00398  1.0000
  C   C13       1.0  0.02538  0.35806  0.99994  1.0000
  C   C14       1.0  0.02764  0.57965  0.25480  1.0000
  C   C15       1.0  0.02714  0.54387  0.31552  1.0000
  C   C16       1.0  0.02460  0.47029  0.31544  1.0000
  C   C17       1.0  0.02352  0.43442  0.25464  1.0000
  C   C18       1.0  0.02675  0.57937  0.12755  1.0000
  C   C19       1.0  0.02627  0.54437  0.19002  1.0000
  C   C20       1.0  0.02468  0.46961  0.18991  1.0000
  C   C21       1.0  0.02444  0.43470  0.12728  1.0000
  C   C22       1.0  0.02757  0.57990  0.74571  1.0000
  C   C23       1.0  0.96150  0.75775  0.43058  1.0000
  C   C24       1.0  0.94509  0.69825  0.46656  1.0000
  C   C25       1.0  0.94515  0.69859  0.54014  1.0000
  C   C26       1.0  0.96181  0.75837  0.57581  1.0000
  C   C27       1.0  0.00980  0.94616  0.46531  1.0000
  C   C28       1.0  0.00961  0.94653  0.54014  1.0000
  C   C29       1.0  0.02578  0.00907  0.57558  1.0000
  C   C30       1.0  0.04275  0.07116  0.53977  1.0000
  C   C31       1.0  0.04335  0.07074  0.46494  1.0000
  C   C32       1.0  0.02646  0.00829  0.42954  1.0000
  C   C33       1.0  0.93761  0.01471  0.24573  1.0000
  C   C34       1.0  0.02592  0.00795  0.20971  1.0000
  C   C35       1.0  0.11439  0.00116  0.24550  1.0000
  C   C36       1.0  0.11455  0.00149  0.31699  1.0000
  C   C37       1.0  0.02702  0.54416  0.68486  1.0000
  C   C38       1.0  0.02634  0.00803  0.35339  1.0000
  C   C39       1.0  0.07731  0.19499  0.46456  1.0000
  C   C40       1.0  0.06049  0.13339  0.42982  1.0000
  C   C41       1.0  0.09410  0.25918  0.57437  1.0000
  C   C42       1.0  0.11292  0.31833  0.53839  1.0000
  C   C43       1.0  0.11407  0.31783  0.46482  1.0000
  C   C44       1.0  0.09645  0.25819  0.42914  1.0000
  C   C45       1.0  0.99452  0.88360  0.57520  1.0000
  C   C46       1.0  0.97862  0.82189  0.54041  1.0000
  C   C47       1.0  0.97839  0.82158  0.46564  1.0000
  C   C48       1.0  0.99424  0.88299  0.43055  1.0000
  C   C49       1.0  0.93791  0.01445  0.31723  1.0000
  C   C50       1.0  0.02458  0.47059  0.68468  1.0000
  C   C51       1.0  0.02388  0.43467  0.74532  1.0000
  C   C52       1.0  0.02671  0.57951  0.87296  1.0000
  C   C53       1.0  0.02568  0.00793  0.13306  1.0000
  C   C54       1.0  0.02558  0.87661  0.00183  1.0000
  C   C55       1.0  0.02597  0.13787  0.00229  1.0000
  C   C56       1.0  0.73370  0.95438  0.97513  1.0000
  C   C57       1.0  0.31921  0.03241  0.05678  1.0000
  C   C58       1.0  0.42063  0.03365  0.05883  1.0000
  C   C59       1.0  0.63233  0.95194  0.97442  1.0000
  C   C60       1.0  0.57997  0.00724  0.00257  1.0000
  C   C61       1.0  0.63193  0.06282  0.03043  1.0000
  C   C62       1.0  0.73334  0.06098  0.02902  1.0000
  C   C63       1.0  0.47285  0.00694  0.00277  1.0000
  C   C64       1.0  0.05841  0.13435  0.57444  1.0000
  C   C65       1.0  0.31926  0.98092  0.94904  1.0000
  C   C66       1.0  0.11455  0.69274  0.99588  1.0000
  C   C67       1.0  0.42067  0.98000  0.94683  1.0000
  C   C68       1.0  0.02540  0.46969  0.06341  1.0000
  C   C69       1.0  0.02636  0.54457  0.81035  1.0000
  C   C70       1.0  0.02514  0.46980  0.81018  1.0000
  C   C71       1.0  0.02505  0.43483  0.87266  1.0000
  C   C72       1.0  0.02600  0.54451  0.06353  1.0000
  C   C73       1.0  0.02620  0.65629  0.00045  1.0000
  C   C74       1.0  0.02536  0.43417  0.99994  1.0000
  C   C75       1.0  0.02555  0.46976  0.93665  1.0000
  C   C76       1.0  0.02631  0.54458  0.93683  1.0000
  C   C77       1.0  0.02634  0.58015  0.00025  1.0000
  C   C78       1.0  0.11430  0.76424  0.99616  1.0000
  C   C79       1.0  0.07611  0.19552  0.53931  1.0000
  C   C80       1.0  0.02552  0.79996  0.00148  1.0000
  C   C81       1.0  0.93707  0.76387  0.00630  1.0000
  C   C82       1.0  0.93749  0.69235  0.00547  1.0000
  Cu  Cu1       1.0  0.11884  0.00723  0.00255  1.0000
  Cu  Cu2       1.0  0.93364  0.00729  0.00238  1.0000
  H   H1        1.0  0.12803  0.36625  0.56582  1.0000
  H   H2        1.0  0.86967  0.01996  0.21673  1.0000
  H   H3        1.0  0.09755  0.25772  0.37290  1.0000
  H   H4        1.0  0.18217  0.99538  0.21640  1.0000
  H   H5        1.0  0.18307  0.99648  0.34554  1.0000
  H   H6        1.0  0.09345  0.25945  0.63060  1.0000
  H   H7        1.0  0.18329  0.01403  0.65888  1.0000
  H   H8        1.0  0.18368  0.01411  0.78799  1.0000
  H   H9        1.0  0.86952  0.00396  0.78890  1.0000
  H   H10       1.0  0.06085  0.13347  0.37365  1.0000
  H   H11       1.0  0.86832  0.00522  0.65969  1.0000
  H   H12       1.0  0.05702  0.13519  0.63059  1.0000
  H   H13       1.0  0.96172  0.75870  0.63206  1.0000
  H   H14       1.0  0.99462  0.88239  0.37437  1.0000
  H   H15       1.0  0.99529  0.88332  0.63135  1.0000
  H   H16       1.0  0.96130  0.75765  0.37434  1.0000
  H   H17       1.0  0.93102  0.65076  0.56785  1.0000
  H   H18       1.0  0.12991  0.36540  0.43710  1.0000
  H   H19       1.0  0.02212  0.37844  0.74520  1.0000
  H   H20       1.0  0.02907  0.57147  0.36449  1.0000
  H   H21       1.0  0.45869  0.05369  0.10396  1.0000
  H   H22       1.0  0.27420  0.05193  0.09899  1.0000
  H   H23       1.0  0.45876  0.96001  0.90166  1.0000
  H   H24       1.0  0.27432  0.96133  0.90685  1.0000
  H   H25       1.0  0.59443  0.90715  0.95350  1.0000
  H   H26       1.0  0.77886  0.91279  0.95446  1.0000
  H   H27       1.0  0.59369  0.10742  0.05153  1.0000
  H   H28       1.0  0.18334  0.66425  0.99217  1.0000
  H   H29       1.0  0.02890  0.57180  0.63599  1.0000
  H   H30       1.0  0.02940  0.63615  0.74594  1.0000
  H   H31       1.0  0.93105  0.65017  0.43913  1.0000
  H   H32       1.0  0.02750  0.63570  0.87267  1.0000
  H   H33       1.0  0.02442  0.37866  0.87220  1.0000
  H   H34       1.0  0.77820  0.10282  0.04941  1.0000
  H   H35       1.0  0.02347  0.37852  0.12750  1.0000
  H   H36       1.0  0.02796  0.63555  0.12807  1.0000
  H   H37       1.0  0.18220  0.79352  0.99255  1.0000
  H   H38       1.0  0.86887  0.79272  0.01085  1.0000
  H   H39       1.0  0.86903  0.66354  0.00894  1.0000
  H   H40       1.0  0.86813  0.35036  0.99292  1.0000
  H   H41       1.0  0.02285  0.44309  0.63565  1.0000
  H   H42       1.0  0.18260  0.22141  0.00821  1.0000
  H   H43       1.0  0.86882  0.22116  0.99322  1.0000
  H   H44       1.0  0.02955  0.63588  0.25474  1.0000
  H   H45       1.0  0.86954  0.01944  0.34598  1.0000
  H   H46       1.0  0.02163  0.37818  0.25451  1.0000
  H   H47       1.0  0.18272  0.35068  0.00650  1.0000
  H   H48       1.0  0.02316  0.44271  0.36435  1.0000
  N   N1        1.0  0.78264  0.00782  0.00191  1.0000
  N   N2        1.0  0.27009  0.00663  0.00294  1.0000
  O   O1        1.0  0.10674  0.10877  0.01688  1.0000
  O   O2        1.0  0.94602  0.99267  0.90098  1.0000
  O   O3        1.0  0.10641  0.90585  0.98777  1.0000
  O   O4        1.0  0.94467  0.90601  0.01617  1.0000
  O   O5        1.0  0.94490  0.02214  0.10380  1.0000
  O   O6        1.0  0.10659  0.99360  0.10367  1.0000
  O   O7        1.0  0.10772  0.02124  0.90133  1.0000
  O   O8        1.0  0.94506  0.10839  0.98829  1.0000
